Version 4
SHEET 1 880 680
WIRE 64 64 -48 64
WIRE 208 64 144 64
WIRE 240 64 208 64
WIRE 336 64 304 64
WIRE 544 64 336 64
WIRE 336 112 336 64
WIRE 544 112 544 64
WIRE -48 128 -48 64
WIRE 160 128 80 128
WIRE 208 128 208 64
WIRE 160 208 160 128
WIRE -48 256 -48 208
WIRE 80 256 80 208
WIRE 80 256 -48 256
WIRE 176 256 80 256
WIRE 208 256 208 224
WIRE 208 256 176 256
WIRE 336 256 336 176
WIRE 336 256 208 256
WIRE 544 256 544 192
WIRE 544 256 336 256
WIRE 176 288 176 256
FLAG 176 288 0
SYMBOL Contrib\\Toshiba\\nmos\\SSM3K09FU 160 128 R0
SYMATTR InstName U1
SYMBOL voltage -48 112 R0
WINDOW 123 0 0 Left 0
WINDOW 39 0 0 Left 0
SYMATTR InstName V1
SYMATTR Value 3.3
SYMBOL diode 240 80 R270
WINDOW 0 32 32 VTop 2
WINDOW 3 0 32 VBottom 2
SYMATTR InstName D1
SYMBOL ind 160 48 R90
WINDOW 0 5 56 VBottom 2
WINDOW 3 32 56 VTop 2
SYMATTR InstName L1
SYMATTR Value 100m
SYMBOL cap 320 112 R0
SYMATTR InstName C1
SYMATTR Value 200µF
SYMBOL voltage 80 112 R0
WINDOW 3 -418 183 Left 2
WINDOW 123 0 0 Left 0
WINDOW 39 0 0 Left 0
SYMATTR Value PULSE(0 3.3 0 0.1us 0.1us 0.4ms 1ms 500)
SYMATTR InstName V2
SYMBOL res 528 96 R0
SYMATTR InstName R1
SYMATTR Value 1K
TEXT 376 64 Left 2 !.tran 1000ms
TEXT 424 104 Left 2 !.op
